! A default 24 hour time-series of loads from an OpenDSS example. You can generate scaled up/down versions from this for your own horizon duration T
New Loadshape.LoadShapeLoadDefault npts=24 interval=1 mult=[0.71 0.657 0.618 0.592 0.598 0.613 0.644 0.668 0.705 0.75 0.777 0.787 0.796 0.782 0.783 0.789 0.826 0.855 0.95 1 0.97 0.921 0.85 0.72]
! New Loadshape.LoadShape npts =5 interval = 1 mult = [0.75       0.777       0.787       0.796       0.782]